<?xml version="1.0" encoding="UTF-8"?>

<!-- generated on 2024-11-26 17:40:47 by Eclipse SUMO netedit Version 1.20.0
<configuration xmlns:xsi="http://www.w3.org/2001/XMLSchema-instance" xsi:noNamespaceSchemaLocation="http://sumo.dlr.de/xsd/neteditConfiguration.xsd">

    <input>
        <sumo-net-file value="/Users/merouaneboukandoura/project_rl/test_project.net.xml"/>
    </input>

    <output>
        <output-file value="/Users/merouaneboukandoura/project_rl/test_project.net.xml"/>
    </output>

    <processing>
        <geometry.min-radius.fix.railways value="false"/>
        <geometry.max-grade.fix value="false"/>
        <offset.disable-normalization value="true"/>
        <lefthand value="0"/>
    </processing>

    <junctions>
        <no-internal-links value="true"/>
        <no-turnarounds value="true"/>
        <junctions.corner-detail value="5"/>
        <junctions.limit-turn-speed value="5.50"/>
        <rectangular-lane-cut value="0"/>
    </junctions>

    <pedestrian>
        <walkingareas value="0"/>
    </pedestrian>

</configuration>
-->

<net version="1.20" junctionCornerDetail="5" limitTurnSpeed="5.50" xmlns:xsi="http://www.w3.org/2001/XMLSchema-instance" xsi:noNamespaceSchemaLocation="http://sumo.dlr.de/xsd/net_file.xsd">

    <location netOffset="0.00,0.00" convBoundary="1.87,59.58,71.89,75.00" origBoundary="-10000000000.00,-10000000000.00,10000000000.00,10000000000.00" projParameter="!"/>

    <edge id="E1" from="J3" to="J4" priority="1">
        <lane id="E1_0" index="0" speed="25.00" length="70.02" shape="71.89,82.13 1.87,82.13"/>
        <lane id="E1_1" index="1" speed="25.00" length="70.02" shape="71.89,78.93 1.87,78.93"/>
        <lane id="E1_2" index="2" speed="25.00" length="70.02" shape="71.89,75.73 1.87,75.73"/>
    </edge>
    <edge id="E2" from="J5" to="J6" priority="-1">
        <lane id="E2_0" index="0" speed="13.89" length="21.89" shape="41.28,76.14 25.74,60.72"/>
    </edge>

    <junction id="J3" type="dead_end" x="71.89" y="74.13" incLanes="" intLanes="" shape="71.89,74.13 71.89,83.73"/>
    <junction id="J4" type="dead_end" x="1.87" y="74.13" incLanes="E1_0 E1_1 E1_2" intLanes="" shape="1.87,83.73 1.87,74.13"/>
    <junction id="J5" type="dead_end" x="42.41" y="75.00" incLanes="" intLanes="" shape="42.41,75.00 40.16,77.27"/>
    <junction id="J6" type="dead_end" x="26.87" y="59.58" incLanes="E2_0" intLanes="" shape="24.62,61.85 26.87,59.58"/>


</net>
