<?xml version="1.0" encoding="UTF-8"?>

<!-- generated on 2024-11-26 15:07:25 by Eclipse SUMO netedit Version 1.20.0 -->
<!-- <configuration xmlns:xsi="http://www.w3.org/2001/XMLSchema-instance" xsi:noNamespaceSchemaLocation="http://sumo.dlr.de/xsd/neteditConfiguration.xsd">

    <input>
        <sumo-net-file value="/Users/merouaneboukandoura/demo.net.xml"/>
    </input>

    <output>
        <output-file value="/Users/merouaneboukandoura/demo.net.xml"/>
    </output>

    <processing>
        <offset.disable-normalization value="true"/>
    </processing>

    <junctions>
        <no-turnarounds value="true"/>
    </junctions>

    <netedit>
        <new-network value="false"/>
    </netedit>

</configuration> -->

<net version="1.20" junctionCornerDetail="5" limitTurnSpeed="5.50" xmlns:xsi="http://www.w3.org/2001/XMLSchema-instance" xsi:noNamespaceSchemaLocation="http://sumo.dlr.de/xsd/net_file.xsd">

    <location netOffset="0.00,0.00" convBoundary="0.00,0.00,1000.00,200.00" origBoundary="0.00,0.00,1000.00,200.00" projParameter="!"/>
    
    <edge id="highway" from="start" to="end" priority="2">
        <lane id="highway_0" index="0" speed="33.33" length="1000"/>
        <lane id="highway_1" speed="33.33" length="1000"/>
        <lane id="highway_2" speed="33.33" length="1000"/>
    </edge>
    
    <edge id="ramp" from="rampStart" to="merge" priority="1" numLanes="1">
        <lane id="ramp_0" speed="25.00" length="200"/>
    </edge>
    
    <junction id="start" type="priority" x="0.00" y="0.00" incLanes=""/>
    <junction id="end" type="priority" x="1000.00" y="0.00" incLanes="highway_0 highway_1 highway_2"/>
    <junction id="rampStart" type="priority" x="200.00" y="-100.00" incLanes=""/>
    <junction id="merge" type="priority" x="300.00" y="0.00" incLanes="ramp_0"/>

    <connection from="ramp" to="highway" fromLane="0" toLane="0" dir="s"/>
</net>
