
<net>
    <location netOffset="0,0" convBoundary="0,0,1000,200" origBoundary="0,0,1000,200"/>
    <edge id="highway" from="start" to="end" priority="2" numLanes="3">
        <lane id="highway_0" speed="33.33" length="1000"/>
        <lane id="highway_1" speed="33.33" length="1000"/>
        <lane id="highway_2" speed="33.33" length="1000"/>
    </edge>
    <edge id="ramp" from="rampStart" to="merge" priority="1" numLanes="1">
        <lane id="ramp_0" speed="25.00" length="200"/>
    </edge>
    <junction id="start" type="priority" x="0" y="0" incLanes=""/>
    <junction id="end" type="priority" x="1000" y="0" incLanes="highway_0 highway_1 highway_2"/>
    <junction id="rampStart" type="priority" x="200" y="-100" incLanes=""/>
    <junction id="merge" type="priority" x="300" y="0" incLanes="ramp_0"/>
</net>
